[TITLE]
Example of an input file generated totally outside of the SWMM example program



[OPTIONS]
;;Options            Value
;;------------------ ------------
FLOW_UNITS           CMS
INFILTRATION         GREEN_AMPT
FLOW_ROUTING         DYNWAVE
LINK_OFFSETS         DEPTH
MIN_SLOPE            0
ALLOW_PONDING        YES
SKIP_STEADY_STATE    NO
START_DATE           09/09/2012
START_TIME           12:00:00
REPORT_START_DATE    09/09/2012
REPORT_START_TIME    12:00:00
END_DATE             09/09/2012
END_TIME             13:00:00
SWEEP_START          01/01
SWEEP_END            12/31
DRY_DAYS             0
REPORT_STEP          00:05:00
WET_STEP             00:05:00
DRY_STEP             00:05:00
ROUTING_STEP         0.25
INERTIAL_DAMPING     FULL
NORMAL_FLOW_LIMITED  BOTH
FORCE_MAIN_EQUATION  H-W
VARIABLE_STEP        0.75
LENGTHENING_STEP     0
MIN_SURFAREA         0.001
MAX_TRIALS           8
HEAD_TOLERANCE       0.0015
SYS_FLOW_TOL         5
LAT_FLOW_TOL         5



[EVAPORATION]
;;Type          Parameters
;;------------- ----------
CONSTANT     0.0
DRY_ONLY     NO



[RAINGAGES]
;;               Rain      Time   Snow   Data      
;;Name           Type      Intrvl Catch  Source    
;;-------------- --------- ------ ------ ----------
Design_Events    INTENSITY 0:05   1.0    TIMESERIES 1in100yr_Rainfall_interp_Kent_HFX
SC_0             INTENSITY 0:10   1      TIMESERIES SC_0            
SC_1             INTENSITY 0:10   1      TIMESERIES SC_1            
SC_10            INTENSITY 0:10   1      TIMESERIES SC_10           
SC_100           INTENSITY 0:10   1      TIMESERIES SC_100          
SC_101           INTENSITY 0:10   1      TIMESERIES SC_101          
SC_102           INTENSITY 0:10   1      TIMESERIES SC_102          
SC_103           INTENSITY 0:10   1      TIMESERIES SC_103          
SC_104           INTENSITY 0:10   1      TIMESERIES SC_104          
SC_105           INTENSITY 0:10   1      TIMESERIES SC_105          
SC_106           INTENSITY 0:10   1      TIMESERIES SC_106          
SC_107           INTENSITY 0:10   1      TIMESERIES SC_107          
SC_108           INTENSITY 0:10   1      TIMESERIES SC_108          
SC_109           INTENSITY 0:10   1      TIMESERIES SC_109          
SC_11            INTENSITY 0:10   1      TIMESERIES SC_11           
SC_110           INTENSITY 0:10   1      TIMESERIES SC_110          
SC_111           INTENSITY 0:10   1      TIMESERIES SC_111          
SC_112           INTENSITY 0:10   1      TIMESERIES SC_112          
SC_113           INTENSITY 0:10   1      TIMESERIES SC_113          
SC_114           INTENSITY 0:10   1      TIMESERIES SC_114          
SC_115           INTENSITY 0:10   1      TIMESERIES SC_115          
SC_116           INTENSITY 0:10   1      TIMESERIES SC_116          
SC_117           INTENSITY 0:10   1      TIMESERIES SC_117          
SC_118           INTENSITY 0:10   1      TIMESERIES SC_118          
SC_119           INTENSITY 0:10   1      TIMESERIES SC_119          
SC_12            INTENSITY 0:10   1      TIMESERIES SC_12           
SC_120           INTENSITY 0:10   1      TIMESERIES SC_120          
SC_121           INTENSITY 0:10   1      TIMESERIES SC_121          
SC_122           INTENSITY 0:10   1      TIMESERIES SC_122          
SC_123           INTENSITY 0:10   1      TIMESERIES SC_123          
SC_124           INTENSITY 0:10   1      TIMESERIES SC_124          
SC_125           INTENSITY 0:10   1      TIMESERIES SC_125          
SC_126           INTENSITY 0:10   1      TIMESERIES SC_126          
SC_127           INTENSITY 0:10   1      TIMESERIES SC_127          
SC_128           INTENSITY 0:10   1      TIMESERIES SC_128          
SC_129           INTENSITY 0:10   1      TIMESERIES SC_129          
SC_13            INTENSITY 0:10   1      TIMESERIES SC_13           
SC_130           INTENSITY 0:10   1      TIMESERIES SC_130          
SC_131           INTENSITY 0:10   1      TIMESERIES SC_131          
SC_132           INTENSITY 0:10   1      TIMESERIES SC_132          
SC_133           INTENSITY 0:10   1      TIMESERIES SC_133          
SC_134           INTENSITY 0:10   1      TIMESERIES SC_134          
SC_135           INTENSITY 0:10   1      TIMESERIES SC_135          
SC_136           INTENSITY 0:10   1      TIMESERIES SC_136          
SC_137           INTENSITY 0:10   1      TIMESERIES SC_137          
SC_138           INTENSITY 0:10   1      TIMESERIES SC_138          
SC_139           INTENSITY 0:10   1      TIMESERIES SC_139          
SC_14            INTENSITY 0:10   1      TIMESERIES SC_14           
SC_140           INTENSITY 0:10   1      TIMESERIES SC_140          
SC_141           INTENSITY 0:10   1      TIMESERIES SC_141          
SC_142           INTENSITY 0:10   1      TIMESERIES SC_142          
SC_143           INTENSITY 0:10   1      TIMESERIES SC_143          
SC_144           INTENSITY 0:10   1      TIMESERIES SC_144          
SC_145           INTENSITY 0:10   1      TIMESERIES SC_145          
SC_146           INTENSITY 0:10   1      TIMESERIES SC_146          
SC_147           INTENSITY 0:10   1      TIMESERIES SC_147          
SC_148           INTENSITY 0:10   1      TIMESERIES SC_148          
SC_149           INTENSITY 0:10   1      TIMESERIES SC_149          
SC_15            INTENSITY 0:10   1      TIMESERIES SC_15           
SC_150           INTENSITY 0:10   1      TIMESERIES SC_150          
SC_151           INTENSITY 0:10   1      TIMESERIES SC_151          
SC_152           INTENSITY 0:10   1      TIMESERIES SC_152          
SC_153           INTENSITY 0:10   1      TIMESERIES SC_153          
SC_154           INTENSITY 0:10   1      TIMESERIES SC_154          
SC_155           INTENSITY 0:10   1      TIMESERIES SC_155          
SC_156           INTENSITY 0:10   1      TIMESERIES SC_156          
SC_157           INTENSITY 0:10   1      TIMESERIES SC_157          
SC_158           INTENSITY 0:10   1      TIMESERIES SC_158          
SC_159           INTENSITY 0:10   1      TIMESERIES SC_159          
SC_16            INTENSITY 0:10   1      TIMESERIES SC_16           
SC_160           INTENSITY 0:10   1      TIMESERIES SC_160          
SC_161           INTENSITY 0:10   1      TIMESERIES SC_161          
SC_162           INTENSITY 0:10   1      TIMESERIES SC_162          
SC_163           INTENSITY 0:10   1      TIMESERIES SC_163          
SC_164           INTENSITY 0:10   1      TIMESERIES SC_164          
SC_165           INTENSITY 0:10   1      TIMESERIES SC_165          
SC_166           INTENSITY 0:10   1      TIMESERIES SC_166          
SC_167           INTENSITY 0:10   1      TIMESERIES SC_167          
SC_168           INTENSITY 0:10   1      TIMESERIES SC_168          
SC_169           INTENSITY 0:10   1      TIMESERIES SC_169          
SC_17            INTENSITY 0:10   1      TIMESERIES SC_17           
SC_170           INTENSITY 0:10   1      TIMESERIES SC_170          
SC_171           INTENSITY 0:10   1      TIMESERIES SC_171          
SC_172           INTENSITY 0:10   1      TIMESERIES SC_172          
SC_173           INTENSITY 0:10   1      TIMESERIES SC_173          
SC_174           INTENSITY 0:10   1      TIMESERIES SC_174          
SC_175           INTENSITY 0:10   1      TIMESERIES SC_175          
SC_176           INTENSITY 0:10   1      TIMESERIES SC_176          
SC_177           INTENSITY 0:10   1      TIMESERIES SC_177          
SC_178           INTENSITY 0:10   1      TIMESERIES SC_178          
SC_179           INTENSITY 0:10   1      TIMESERIES SC_179          
SC_18            INTENSITY 0:10   1      TIMESERIES SC_18           
SC_180           INTENSITY 0:10   1      TIMESERIES SC_180          
SC_181           INTENSITY 0:10   1      TIMESERIES SC_181          
SC_182           INTENSITY 0:10   1      TIMESERIES SC_182          
SC_183           INTENSITY 0:10   1      TIMESERIES SC_183          
SC_184           INTENSITY 0:10   1      TIMESERIES SC_184          
SC_185           INTENSITY 0:10   1      TIMESERIES SC_185          
SC_186           INTENSITY 0:10   1      TIMESERIES SC_186          
SC_187           INTENSITY 0:10   1      TIMESERIES SC_187          
SC_188           INTENSITY 0:10   1      TIMESERIES SC_188          
SC_189           INTENSITY 0:10   1      TIMESERIES SC_189          
SC_19            INTENSITY 0:10   1      TIMESERIES SC_19           
SC_190           INTENSITY 0:10   1      TIMESERIES SC_190          
SC_191           INTENSITY 0:10   1      TIMESERIES SC_191          
SC_192           INTENSITY 0:10   1      TIMESERIES SC_192          
SC_193           INTENSITY 0:10   1      TIMESERIES SC_193          
SC_194           INTENSITY 0:10   1      TIMESERIES SC_194          
SC_195           INTENSITY 0:10   1      TIMESERIES SC_195          
SC_196           INTENSITY 0:10   1      TIMESERIES SC_196          
SC_197           INTENSITY 0:10   1      TIMESERIES SC_197          
SC_198           INTENSITY 0:10   1      TIMESERIES SC_198          
SC_199           INTENSITY 0:10   1      TIMESERIES SC_199          
SC_2             INTENSITY 0:10   1      TIMESERIES SC_2            
SC_20            INTENSITY 0:10   1      TIMESERIES SC_20           
SC_200           INTENSITY 0:10   1      TIMESERIES SC_200          
SC_201           INTENSITY 0:10   1      TIMESERIES SC_201          
SC_202           INTENSITY 0:10   1      TIMESERIES SC_202          
SC_203           INTENSITY 0:10   1      TIMESERIES SC_203          
SC_204           INTENSITY 0:10   1      TIMESERIES SC_204          
SC_205           INTENSITY 0:10   1      TIMESERIES SC_205          
SC_206           INTENSITY 0:10   1      TIMESERIES SC_206          
SC_207           INTENSITY 0:10   1      TIMESERIES SC_207          
SC_208           INTENSITY 0:10   1      TIMESERIES SC_208          
SC_209           INTENSITY 0:10   1      TIMESERIES SC_209          
SC_21            INTENSITY 0:10   1      TIMESERIES SC_21           
SC_210           INTENSITY 0:10   1      TIMESERIES SC_210          
SC_211           INTENSITY 0:10   1      TIMESERIES SC_211          
SC_212           INTENSITY 0:10   1      TIMESERIES SC_212          
SC_213           INTENSITY 0:10   1      TIMESERIES SC_213          
SC_214           INTENSITY 0:10   1      TIMESERIES SC_214          
SC_215           INTENSITY 0:10   1      TIMESERIES SC_215          
SC_216           INTENSITY 0:10   1      TIMESERIES SC_216          
SC_217           INTENSITY 0:10   1      TIMESERIES SC_217          
SC_218           INTENSITY 0:10   1      TIMESERIES SC_218          
SC_219           INTENSITY 0:10   1      TIMESERIES SC_219          
SC_22            INTENSITY 0:10   1      TIMESERIES SC_22           
SC_220           INTENSITY 0:10   1      TIMESERIES SC_220          
SC_221           INTENSITY 0:10   1      TIMESERIES SC_221          
SC_222           INTENSITY 0:10   1      TIMESERIES SC_222          
SC_223           INTENSITY 0:10   1      TIMESERIES SC_223          
SC_224           INTENSITY 0:10   1      TIMESERIES SC_224          
SC_225           INTENSITY 0:10   1      TIMESERIES SC_225          
SC_226           INTENSITY 0:10   1      TIMESERIES SC_226          
SC_227           INTENSITY 0:10   1      TIMESERIES SC_227          
SC_228           INTENSITY 0:10   1      TIMESERIES SC_228          
SC_229           INTENSITY 0:10   1      TIMESERIES SC_229          
SC_23            INTENSITY 0:10   1      TIMESERIES SC_23           
SC_230           INTENSITY 0:10   1      TIMESERIES SC_230          
SC_231           INTENSITY 0:10   1      TIMESERIES SC_231          
SC_232           INTENSITY 0:10   1      TIMESERIES SC_232          
SC_233           INTENSITY 0:10   1      TIMESERIES SC_233          
SC_234           INTENSITY 0:10   1      TIMESERIES SC_234          
SC_235           INTENSITY 0:10   1      TIMESERIES SC_235          
SC_236           INTENSITY 0:10   1      TIMESERIES SC_236          
SC_237           INTENSITY 0:10   1      TIMESERIES SC_237          
SC_238           INTENSITY 0:10   1      TIMESERIES SC_238          
SC_239           INTENSITY 0:10   1      TIMESERIES SC_239          
SC_24            INTENSITY 0:10   1      TIMESERIES SC_24           
SC_240           INTENSITY 0:10   1      TIMESERIES SC_240          
SC_241           INTENSITY 0:10   1      TIMESERIES SC_241          
SC_242           INTENSITY 0:10   1      TIMESERIES SC_242          
SC_243           INTENSITY 0:10   1      TIMESERIES SC_243          
SC_244           INTENSITY 0:10   1      TIMESERIES SC_244          
SC_245           INTENSITY 0:10   1      TIMESERIES SC_245          
SC_246           INTENSITY 0:10   1      TIMESERIES SC_246          
SC_247           INTENSITY 0:10   1      TIMESERIES SC_247          
SC_248           INTENSITY 0:10   1      TIMESERIES SC_248          
SC_249           INTENSITY 0:10   1      TIMESERIES SC_249          
SC_25            INTENSITY 0:10   1      TIMESERIES SC_25           
SC_250           INTENSITY 0:10   1      TIMESERIES SC_250          
SC_251           INTENSITY 0:10   1      TIMESERIES SC_251          
SC_252           INTENSITY 0:10   1      TIMESERIES SC_252          
SC_253           INTENSITY 0:10   1      TIMESERIES SC_253          
SC_254           INTENSITY 0:10   1      TIMESERIES SC_254          
SC_255           INTENSITY 0:10   1      TIMESERIES SC_255          
SC_256           INTENSITY 0:10   1      TIMESERIES SC_256          
SC_257           INTENSITY 0:10   1      TIMESERIES SC_257          
SC_258           INTENSITY 0:10   1      TIMESERIES SC_258          
SC_259           INTENSITY 0:10   1      TIMESERIES SC_259          
SC_26            INTENSITY 0:10   1      TIMESERIES SC_26           
SC_260           INTENSITY 0:10   1      TIMESERIES SC_260          
SC_261           INTENSITY 0:10   1      TIMESERIES SC_261          
SC_262           INTENSITY 0:10   1      TIMESERIES SC_262          
SC_263           INTENSITY 0:10   1      TIMESERIES SC_263          
SC_264           INTENSITY 0:10   1      TIMESERIES SC_264          
SC_265           INTENSITY 0:10   1      TIMESERIES SC_265          
SC_266           INTENSITY 0:10   1      TIMESERIES SC_266          
SC_267           INTENSITY 0:10   1      TIMESERIES SC_267          
SC_268           INTENSITY 0:10   1      TIMESERIES SC_268          
SC_269           INTENSITY 0:10   1      TIMESERIES SC_269          
SC_27            INTENSITY 0:10   1      TIMESERIES SC_27           
SC_270           INTENSITY 0:10   1      TIMESERIES SC_270          
SC_271           INTENSITY 0:10   1      TIMESERIES SC_271          
SC_272           INTENSITY 0:10   1      TIMESERIES SC_272          
SC_273           INTENSITY 0:10   1      TIMESERIES SC_273          
SC_274           INTENSITY 0:10   1      TIMESERIES SC_274          
SC_275           INTENSITY 0:10   1      TIMESERIES SC_275          
SC_276           INTENSITY 0:10   1      TIMESERIES SC_276          
SC_277           INTENSITY 0:10   1      TIMESERIES SC_277          
SC_278           INTENSITY 0:10   1      TIMESERIES SC_278          
SC_279           INTENSITY 0:10   1      TIMESERIES SC_279          
SC_28            INTENSITY 0:10   1      TIMESERIES SC_28           
SC_280           INTENSITY 0:10   1      TIMESERIES SC_280          
SC_281           INTENSITY 0:10   1      TIMESERIES SC_281          
SC_282           INTENSITY 0:10   1      TIMESERIES SC_282          
SC_283           INTENSITY 0:10   1      TIMESERIES SC_283          
SC_284           INTENSITY 0:10   1      TIMESERIES SC_284          
SC_285           INTENSITY 0:10   1      TIMESERIES SC_285          
SC_286           INTENSITY 0:10   1      TIMESERIES SC_286          
SC_287           INTENSITY 0:10   1      TIMESERIES SC_287          
SC_288           INTENSITY 0:10   1      TIMESERIES SC_288          
SC_289           INTENSITY 0:10   1      TIMESERIES SC_289          
SC_29            INTENSITY 0:10   1      TIMESERIES SC_29           
SC_290           INTENSITY 0:10   1      TIMESERIES SC_290          
SC_291           INTENSITY 0:10   1      TIMESERIES SC_291          
SC_292           INTENSITY 0:10   1      TIMESERIES SC_292          
SC_293           INTENSITY 0:10   1      TIMESERIES SC_293          
SC_294           INTENSITY 0:10   1      TIMESERIES SC_294          
SC_295           INTENSITY 0:10   1      TIMESERIES SC_295          
SC_296           INTENSITY 0:10   1      TIMESERIES SC_296          
SC_297           INTENSITY 0:10   1      TIMESERIES SC_297          
SC_298           INTENSITY 0:10   1      TIMESERIES SC_298          
SC_299           INTENSITY 0:10   1      TIMESERIES SC_299          
SC_3             INTENSITY 0:10   1      TIMESERIES SC_3            
SC_30            INTENSITY 0:10   1      TIMESERIES SC_30           
SC_300           INTENSITY 0:10   1      TIMESERIES SC_300          
SC_301           INTENSITY 0:10   1      TIMESERIES SC_301          
SC_302           INTENSITY 0:10   1      TIMESERIES SC_302          
SC_303           INTENSITY 0:10   1      TIMESERIES SC_303          
SC_304           INTENSITY 0:10   1      TIMESERIES SC_304          
SC_305           INTENSITY 0:10   1      TIMESERIES SC_305          
SC_306           INTENSITY 0:10   1      TIMESERIES SC_306          
SC_307           INTENSITY 0:10   1      TIMESERIES SC_307          
SC_308           INTENSITY 0:10   1      TIMESERIES SC_308          
SC_309           INTENSITY 0:10   1      TIMESERIES SC_309          
SC_31            INTENSITY 0:10   1      TIMESERIES SC_31           
SC_310           INTENSITY 0:10   1      TIMESERIES SC_310          
SC_311           INTENSITY 0:10   1      TIMESERIES SC_311          
SC_312           INTENSITY 0:10   1      TIMESERIES SC_312          
SC_313           INTENSITY 0:10   1      TIMESERIES SC_313          
SC_314           INTENSITY 0:10   1      TIMESERIES SC_314          
SC_315           INTENSITY 0:10   1      TIMESERIES SC_315          
SC_316           INTENSITY 0:10   1      TIMESERIES SC_316          
SC_317           INTENSITY 0:10   1      TIMESERIES SC_317          
SC_318           INTENSITY 0:10   1      TIMESERIES SC_318          
SC_319           INTENSITY 0:10   1      TIMESERIES SC_319          
SC_32            INTENSITY 0:10   1      TIMESERIES SC_32           
SC_320           INTENSITY 0:10   1      TIMESERIES SC_320          
SC_321           INTENSITY 0:10   1      TIMESERIES SC_321          
SC_322           INTENSITY 0:10   1      TIMESERIES SC_322          
SC_323           INTENSITY 0:10   1      TIMESERIES SC_323          
SC_324           INTENSITY 0:10   1      TIMESERIES SC_324          
SC_325           INTENSITY 0:10   1      TIMESERIES SC_325          
SC_326           INTENSITY 0:10   1      TIMESERIES SC_326          
SC_327           INTENSITY 0:10   1      TIMESERIES SC_327          
SC_328           INTENSITY 0:10   1      TIMESERIES SC_328          
SC_329           INTENSITY 0:10   1      TIMESERIES SC_329          
SC_33            INTENSITY 0:10   1      TIMESERIES SC_33           
SC_330           INTENSITY 0:10   1      TIMESERIES SC_330          
SC_331           INTENSITY 0:10   1      TIMESERIES SC_331          
SC_332           INTENSITY 0:10   1      TIMESERIES SC_332          
SC_333           INTENSITY 0:10   1      TIMESERIES SC_333          
SC_334           INTENSITY 0:10   1      TIMESERIES SC_334          
SC_335           INTENSITY 0:10   1      TIMESERIES SC_335          
SC_336           INTENSITY 0:10   1      TIMESERIES SC_336          
SC_337           INTENSITY 0:10   1      TIMESERIES SC_337          
SC_338           INTENSITY 0:10   1      TIMESERIES SC_338          
SC_339           INTENSITY 0:10   1      TIMESERIES SC_339          
SC_34            INTENSITY 0:10   1      TIMESERIES SC_34           
SC_340           INTENSITY 0:10   1      TIMESERIES SC_340          
SC_341           INTENSITY 0:10   1      TIMESERIES SC_341          
SC_342           INTENSITY 0:10   1      TIMESERIES SC_342          
SC_343           INTENSITY 0:10   1      TIMESERIES SC_343          
SC_344           INTENSITY 0:10   1      TIMESERIES SC_344          
SC_345           INTENSITY 0:10   1      TIMESERIES SC_345          
SC_346           INTENSITY 0:10   1      TIMESERIES SC_346          
SC_347           INTENSITY 0:10   1      TIMESERIES SC_347          
SC_348           INTENSITY 0:10   1      TIMESERIES SC_348          
SC_349           INTENSITY 0:10   1      TIMESERIES SC_349          
SC_35            INTENSITY 0:10   1      TIMESERIES SC_35           
SC_350           INTENSITY 0:10   1      TIMESERIES SC_350          
SC_351           INTENSITY 0:10   1      TIMESERIES SC_351          
SC_352           INTENSITY 0:10   1      TIMESERIES SC_352          
SC_353           INTENSITY 0:10   1      TIMESERIES SC_353          
SC_354           INTENSITY 0:10   1      TIMESERIES SC_354          
SC_355           INTENSITY 0:10   1      TIMESERIES SC_355          
SC_356           INTENSITY 0:10   1      TIMESERIES SC_356          
SC_357           INTENSITY 0:10   1      TIMESERIES SC_357          
SC_358           INTENSITY 0:10   1      TIMESERIES SC_358          
SC_359           INTENSITY 0:10   1      TIMESERIES SC_359          
SC_36            INTENSITY 0:10   1      TIMESERIES SC_36           
SC_360           INTENSITY 0:10   1      TIMESERIES SC_360          
SC_361           INTENSITY 0:10   1      TIMESERIES SC_361          
SC_362           INTENSITY 0:10   1      TIMESERIES SC_362          
SC_363           INTENSITY 0:10   1      TIMESERIES SC_363          
SC_364           INTENSITY 0:10   1      TIMESERIES SC_364          
SC_365           INTENSITY 0:10   1      TIMESERIES SC_365          
SC_366           INTENSITY 0:10   1      TIMESERIES SC_366          
SC_367           INTENSITY 0:10   1      TIMESERIES SC_367          
SC_368           INTENSITY 0:10   1      TIMESERIES SC_368          
SC_369           INTENSITY 0:10   1      TIMESERIES SC_369          
SC_37            INTENSITY 0:10   1      TIMESERIES SC_37           
SC_370           INTENSITY 0:10   1      TIMESERIES SC_370          
SC_371           INTENSITY 0:10   1      TIMESERIES SC_371          
SC_372           INTENSITY 0:10   1      TIMESERIES SC_372          
SC_373           INTENSITY 0:10   1      TIMESERIES SC_373          
SC_374           INTENSITY 0:10   1      TIMESERIES SC_374          
SC_375           INTENSITY 0:10   1      TIMESERIES SC_375          
SC_376           INTENSITY 0:10   1      TIMESERIES SC_376          
SC_377           INTENSITY 0:10   1      TIMESERIES SC_377          
SC_378           INTENSITY 0:10   1      TIMESERIES SC_378          
SC_379           INTENSITY 0:10   1      TIMESERIES SC_379          
SC_38            INTENSITY 0:10   1      TIMESERIES SC_38           
SC_380           INTENSITY 0:10   1      TIMESERIES SC_380          
SC_381           INTENSITY 0:10   1      TIMESERIES SC_381          
SC_382           INTENSITY 0:10   1      TIMESERIES SC_382          
SC_383           INTENSITY 0:10   1      TIMESERIES SC_383          
SC_384           INTENSITY 0:10   1      TIMESERIES SC_384          
SC_385           INTENSITY 0:10   1      TIMESERIES SC_385          
SC_386           INTENSITY 0:10   1      TIMESERIES SC_386          
SC_387           INTENSITY 0:10   1      TIMESERIES SC_387          
SC_388           INTENSITY 0:10   1      TIMESERIES SC_388          
SC_389           INTENSITY 0:10   1      TIMESERIES SC_389          
SC_39            INTENSITY 0:10   1      TIMESERIES SC_39           
SC_390           INTENSITY 0:10   1      TIMESERIES SC_390          
SC_391           INTENSITY 0:10   1      TIMESERIES SC_391          
SC_392           INTENSITY 0:10   1      TIMESERIES SC_392          
SC_393           INTENSITY 0:10   1      TIMESERIES SC_393          
SC_394           INTENSITY 0:10   1      TIMESERIES SC_394          
SC_395           INTENSITY 0:10   1      TIMESERIES SC_395          
SC_396           INTENSITY 0:10   1      TIMESERIES SC_396          
SC_397           INTENSITY 0:10   1      TIMESERIES SC_397          
SC_398           INTENSITY 0:10   1      TIMESERIES SC_398          
SC_399           INTENSITY 0:10   1      TIMESERIES SC_399          
SC_4             INTENSITY 0:10   1      TIMESERIES SC_4            
SC_40            INTENSITY 0:10   1      TIMESERIES SC_40           
SC_400           INTENSITY 0:10   1      TIMESERIES SC_400          
SC_401           INTENSITY 0:10   1      TIMESERIES SC_401          
SC_402           INTENSITY 0:10   1      TIMESERIES SC_402          
SC_403           INTENSITY 0:10   1      TIMESERIES SC_403          
SC_404           INTENSITY 0:10   1      TIMESERIES SC_404          
SC_405           INTENSITY 0:10   1      TIMESERIES SC_405          
SC_406           INTENSITY 0:10   1      TIMESERIES SC_406          
SC_407           INTENSITY 0:10   1      TIMESERIES SC_407          
SC_408           INTENSITY 0:10   1      TIMESERIES SC_408          
SC_409           INTENSITY 0:10   1      TIMESERIES SC_409          
SC_41            INTENSITY 0:10   1      TIMESERIES SC_41           
SC_410           INTENSITY 0:10   1      TIMESERIES SC_410          
SC_411           INTENSITY 0:10   1      TIMESERIES SC_411          
SC_412           INTENSITY 0:10   1      TIMESERIES SC_412          
SC_413           INTENSITY 0:10   1      TIMESERIES SC_413          
SC_414           INTENSITY 0:10   1      TIMESERIES SC_414          
SC_415           INTENSITY 0:10   1      TIMESERIES SC_415          
SC_416           INTENSITY 0:10   1      TIMESERIES SC_416          
SC_417           INTENSITY 0:10   1      TIMESERIES SC_417          
SC_418           INTENSITY 0:10   1      TIMESERIES SC_418          
SC_419           INTENSITY 0:10   1      TIMESERIES SC_419          
SC_42            INTENSITY 0:10   1      TIMESERIES SC_42           
SC_420           INTENSITY 0:10   1      TIMESERIES SC_420          
SC_421           INTENSITY 0:10   1      TIMESERIES SC_421          
SC_422           INTENSITY 0:10   1      TIMESERIES SC_422          
SC_423           INTENSITY 0:10   1      TIMESERIES SC_423          
SC_424           INTENSITY 0:10   1      TIMESERIES SC_424          
SC_425           INTENSITY 0:10   1      TIMESERIES SC_425          
SC_426           INTENSITY 0:10   1      TIMESERIES SC_426          
SC_427           INTENSITY 0:10   1      TIMESERIES SC_427          
SC_428           INTENSITY 0:10   1      TIMESERIES SC_428          
SC_429           INTENSITY 0:10   1      TIMESERIES SC_429          
SC_43            INTENSITY 0:10   1      TIMESERIES SC_43           
SC_430           INTENSITY 0:10   1      TIMESERIES SC_430          
SC_431           INTENSITY 0:10   1      TIMESERIES SC_431          
SC_432           INTENSITY 0:10   1      TIMESERIES SC_432          
SC_433           INTENSITY 0:10   1      TIMESERIES SC_433          
SC_434           INTENSITY 0:10   1      TIMESERIES SC_434          
SC_435           INTENSITY 0:10   1      TIMESERIES SC_435          
SC_436           INTENSITY 0:10   1      TIMESERIES SC_436          
SC_437           INTENSITY 0:10   1      TIMESERIES SC_437          
SC_438           INTENSITY 0:10   1      TIMESERIES SC_438          
SC_439           INTENSITY 0:10   1      TIMESERIES SC_439          
SC_44            INTENSITY 0:10   1      TIMESERIES SC_44           
SC_440           INTENSITY 0:10   1      TIMESERIES SC_440          
SC_441           INTENSITY 0:10   1      TIMESERIES SC_441          
SC_442           INTENSITY 0:10   1      TIMESERIES SC_442          
SC_443           INTENSITY 0:10   1      TIMESERIES SC_443          
SC_444           INTENSITY 0:10   1      TIMESERIES SC_444          
SC_445           INTENSITY 0:10   1      TIMESERIES SC_445          
SC_446           INTENSITY 0:10   1      TIMESERIES SC_446          
SC_447           INTENSITY 0:10   1      TIMESERIES SC_447          
SC_448           INTENSITY 0:10   1      TIMESERIES SC_448          
SC_449           INTENSITY 0:10   1      TIMESERIES SC_449          
SC_45            INTENSITY 0:10   1      TIMESERIES SC_45           
SC_450           INTENSITY 0:10   1      TIMESERIES SC_450          
SC_451           INTENSITY 0:10   1      TIMESERIES SC_451          
SC_452           INTENSITY 0:10   1      TIMESERIES SC_452          
SC_453           INTENSITY 0:10   1      TIMESERIES SC_453          
SC_454           INTENSITY 0:10   1      TIMESERIES SC_454          
SC_455           INTENSITY 0:10   1      TIMESERIES SC_455          
SC_456           INTENSITY 0:10   1      TIMESERIES SC_456          
SC_457           INTENSITY 0:10   1      TIMESERIES SC_457          
SC_458           INTENSITY 0:10   1      TIMESERIES SC_458          
SC_459           INTENSITY 0:10   1      TIMESERIES SC_459          
SC_46            INTENSITY 0:10   1      TIMESERIES SC_46           
SC_460           INTENSITY 0:10   1      TIMESERIES SC_460          
SC_461           INTENSITY 0:10   1      TIMESERIES SC_461          
SC_462           INTENSITY 0:10   1      TIMESERIES SC_462          
SC_463           INTENSITY 0:10   1      TIMESERIES SC_463          
SC_464           INTENSITY 0:10   1      TIMESERIES SC_464          
SC_465           INTENSITY 0:10   1      TIMESERIES SC_465          
SC_466           INTENSITY 0:10   1      TIMESERIES SC_466          
SC_467           INTENSITY 0:10   1      TIMESERIES SC_467          
SC_468           INTENSITY 0:10   1      TIMESERIES SC_468          
SC_469           INTENSITY 0:10   1      TIMESERIES SC_469          
SC_47            INTENSITY 0:10   1      TIMESERIES SC_47           
SC_470           INTENSITY 0:10   1      TIMESERIES SC_470          
SC_471           INTENSITY 0:10   1      TIMESERIES SC_471          